*Node, Nset = Nall
      1,          -5.,           0.,          10.
      2,          -5.,          -5.,          10.
      3,           0.,          -5.,          10.
      4,           0.,           0.,          10.
      5,          -5.,          -5.,           0.
      6,           0.,          -5.,           0.
      7,           0.,           0.,           0.
      8,          -5.,           0.,           0.
      9,          -5.,         -10.,           0.
     10,           0.,         -10.,           0.
     11,           0.,         -10.,          10.
     12,          -5.,         -10.,          10.
     13,         -10.,          -5.,          10.
     14,         -10.,          -5.,           0.
     15,         -10.,         -10.,           0.
     16,         -10.,         -10.,          10.
     17,         -10.,           0.,          10.
     18,         -10.,           0.,           0.
     19,          -5.,         -0.5,          10.
     20,          -5.,          -1.,          10.
** ... 9241 like lines cut
*Element, type=C3D8R
   1,  128,  910, 3106,  568,    1,   19,  406,   54
   2,  910,  911, 3107, 3106,   19,   20,  407,  406
   3,  911,  912, 3108, 3107,   20,   21,  408,  407
   4,  912,  913, 3109, 3108,   21,   22,  409,  408
   5,  913,  914, 3110, 3109,   22,   23,  410,  409
   6,  914,  915, 3111, 3110,   23,   24,  411,  410
   7,  915,  916, 3112, 3111,   24,   25,  412,  411
   8,  916,  917, 3113, 3112,   25,   26,  413,  412
   9,  917,  918, 3114, 3113,   26,   27,  414,  413
  10,  918,  166,  739, 3114,   27,    2,   28,  414
  11,  568, 3106, 3115,  569,   54,  406,  415,   53
  12, 3106, 3107, 3116, 3115,  406,  407,  416,  415
  13, 3107, 3108, 3117, 3116,  407,  408,  417,  416
  14, 3108, 3109, 3118, 3117,  408,  409,  418,  417
  15, 3109, 3110, 3119, 3118,  409,  410,  419,  418
  16, 3110, 3111, 3120, 3119,  410,  411,  420,  419
  17, 3111, 3112, 3121, 3120,  411,  412,  421,  420
  18, 3112, 3113, 3122, 3121,  412,  413,  422,  421
  19, 3113, 3114, 3123, 3122,  413,  414,  423,  422
  20, 3114,  739,  740, 3123,  414,   28,   29,  423
** ... 7980 like lines cut
*Nset, nset=Set-1Part
1, 2, 3, 4, 5, 6, 7, 8, 
9, 10, 11, 12, 13, 14, 15, 16, 
17, 18, 19, 20, 21, 22, 23, 24, 
25, 26, 27, 28, 29, 30, 31, 32, 
33, 34, 35, 36, 37, 38, 39, 40, 
41, 42, 43, 44, 45, 46, 47, 48, 
49, 50, 51, 52, 53, 54, 55, 56, 
57, 58, 59, 60, 61, 62, 63, 64, 
65, 66, 67, 68, 69, 70, 71, 72, 
73, 74, 75, 76, 77, 78, 79, 80, 
81, 82, 83, 84, 85, 86, 87, 88, 
89, 90, 91, 92, 93, 94, 95, 96, 
97, 98, 99, 100, 101, 102, 103, 104, 
105, 106, 107, 108, 109, 110, 111, 112, 
113, 114, 115, 116, 117, 118, 119, 120, 
121, 122, 123, 124, 125, 126, 127, 128, 
129, 130, 131, 132, 133, 134, 135, 136, 
137, 138, 139, 140, 141, 142, 143, 144, 
145, 146, 147, 148, 149, 150, 151, 152, 
153, 154, 155, 156, 157, 158, 159, 160, 
** ... 1138 like lines cut
*Elset, elset=Set-1Part
1, 2, 3, 4, 5, 6, 7, 8, 
9, 10, 11, 12, 13, 14, 15, 16, 
17, 18, 19, 20, 21, 22, 23, 24, 
25, 26, 27, 28, 29, 30, 31, 32, 
33, 34, 35, 36, 37, 38, 39, 40, 
41, 42, 43, 44, 45, 46, 47, 48, 
49, 50, 51, 52, 53, 54, 55, 56, 
57, 58, 59, 60, 61, 62, 63, 64, 
65, 66, 67, 68, 69, 70, 71, 72, 
73, 74, 75, 76, 77, 78, 79, 80, 
81, 82, 83, 84, 85, 86, 87, 88, 
89, 90, 91, 92, 93, 94, 95, 96, 
97, 98, 99, 100, 101, 102, 103, 104, 
105, 106, 107, 108, 109, 110, 111, 112, 
113, 114, 115, 116, 117, 118, 119, 120, 
121, 122, 123, 124, 125, 126, 127, 128, 
129, 130, 131, 132, 133, 134, 135, 136, 
137, 138, 139, 140, 141, 142, 143, 144, 
145, 146, 147, 148, 149, 150, 151, 152, 
153, 154, 155, 156, 157, 158, 159, 160, 
** ... 980 like lines cut
*Solid Section, elset=Eall, material=Material-1,
*Nset, nset=Set-1
 2,
*Nset, nset=Set-2
  7,  9, 10, 15, 18
*Nset, nset=Set-3
  7, 10, 15, 18
*Material, name=Material-1
*Conductivity
255.,
*Elastic
70000., 0.33
*Elset, elset=Eall 
1,2,3,4,5,6,7,
8,9,10,11,12,13,14,
15,16,17,18,19,20,21,
22,23,24,25,26,27,28,
29,30,31,32,33,34,35,
36,37,38,39,40,41,42,
43,44,45,46,47,48,49,
50,51,52,53,54,55,56,
57,58,59,60,61,62,63,
64,65,66,67,68,69,70,
71,72,73,74,75,76,77,
78,79,80,81,82,83,84,
85,86,87,88,89,90,91,
92,93,94,95,96,97,98,
99,100,101,102,103,104,105,
106,107,108,109,110,111,112,
113,114,115,116,117,118,119,
120,121,122,123,124,125,126,
127,128,129,130,131,132,133,
134,135,136,137,138,139,140,
** ... 1123 like lines cut
*Step, name=Step-1, nlgeom=NO
*Static
1., 1., 1e-05, 1.
*Boundary 
1, 1,1,-1.691377e-15
1, 2,2,-3.3371e-05
1, 3,3,0.01652572
2, 1,1,-2.047762e-15
2, 2,2,-1.992826e-15
2, 3,3,0.03132376
3, 1,1,-3.3371e-05
3, 2,2,-2.351107e-15
3, 3,3,0.01652572
4, 1,1,1.424907e-05
4, 2,2,1.424907e-05
4, 3,3,0.01627271
5, 1,1,-1.723255e-16
5, 2,2,3.875568e-16
5, 3,3,0.01629224
6, 1,1,0.0001642403
6, 2,2,5.411327e-17
6, 3,3,0.01601978
7, 1,1,0.0
7, 2,2,0.0
** ... 27763 like lines cut
Set-3, 1, 1
Set-3, 2, 2
Set-3, 3, 3
*Cload
Set-1, 3, 100.
*EL Print,ELSET=Eall,FREQUENCY=999
ENER, S
*End Step
